Version 4
SHEET 1 1584 888
WIRE -208 0 -304 0
WIRE -48 0 -208 0
WIRE 416 0 -48 0
WIRE -304 16 -304 0
WIRE -208 16 -208 0
WIRE -48 48 -48 0
WIRE -32 48 -48 48
WIRE 496 48 288 48
WIRE 768 48 496 48
WIRE 768 64 768 48
WIRE -304 112 -304 96
WIRE -208 112 -208 80
WIRE -128 128 -144 128
WIRE -32 128 -48 128
WIRE 320 128 288 128
WIRE 336 128 320 128
WIRE 416 128 416 0
WIRE 416 128 400 128
WIRE 496 128 496 48
WIRE 768 160 768 144
WIRE -224 208 -288 208
WIRE -112 208 -144 208
WIRE -32 208 -112 208
WIRE 448 208 288 208
WIRE 320 224 320 128
WIRE -384 288 -400 288
WIRE -288 288 -288 272
WIRE -288 288 -304 288
WIRE -112 288 -112 272
WIRE -112 288 -288 288
WIRE -32 288 -112 288
WIRE 320 288 288 288
WIRE 496 288 496 224
WIRE 496 288 320 288
WIRE 528 288 496 288
WIRE 656 288 608 288
WIRE 688 288 656 288
WIRE 768 288 688 288
WIRE 880 288 768 288
WIRE 1488 288 1488 272
WIRE 688 304 688 288
WIRE 768 304 768 288
WIRE 880 304 880 288
WIRE -144 368 -160 368
WIRE -32 368 -64 368
WIRE 320 368 288 368
WIRE 416 368 416 128
WIRE 416 368 400 368
WIRE 496 400 496 288
WIRE 528 400 496 400
WIRE 608 400 592 400
WIRE 768 400 768 368
WIRE 880 400 880 384
WIRE 688 416 688 384
WIRE -32 448 -48 448
WIRE 416 448 416 368
WIRE 416 448 288 448
WIRE 496 448 496 400
WIRE 656 512 656 288
WIRE 768 512 656 512
WIRE -144 528 -160 528
WIRE -32 528 -80 528
WIRE 448 528 288 528
WIRE 656 544 656 512
WIRE 768 544 768 512
WIRE 496 560 496 544
WIRE -32 608 -48 608
WIRE 304 608 288 608
WIRE -288 656 -288 288
WIRE 656 656 656 624
WIRE 656 656 -288 656
WIRE 768 656 768 608
WIRE 768 656 656 656
FLAG 768 160 0
FLAG 496 560 0
FLAG 304 608 0
FLAG -48 608 0
FLAG -304 112 0
FLAG 768 400 0
FLAG 880 400 0
FLAG -160 368 0
FLAG -144 128 0
FLAG -160 528 0
FLAG 608 400 0
FLAG 880 288 OUT
FLAG -48 448 0
FLAG -400 288 0
FLAG 768 48 IN
FLAG -208 112 0
FLAG 1488 368 0
FLAG 1488 272 VRef
FLAG 688 416 0
SYMBOL nmos 448 128 R0
SYMATTR InstName Q1
SYMATTR Value Si7850DP
SYMBOL nmos 448 448 R0
SYMATTR InstName Q2
SYMATTR Value Si7850DP
SYMBOL voltage -304 0 R0
WINDOW 0 29 24 Left 2
SYMATTR InstName V1
SYMATTR Value 5
SYMBOL voltage 768 48 R0
WINDOW 123 0 0 Left 0
WINDOW 39 0 0 Left 0
SYMATTR InstName V2
SYMATTR Value PULSE(12 36 3m 1n 1n 5 5 1)
SYMBOL ind 512 304 R270
WINDOW 0 32 56 VTop 2
WINDOW 3 5 56 VBottom 2
SYMATTR InstName L1
SYMATTR Value 80µ
SYMBOL cap 752 304 R0
SYMATTR Value 20µ
SYMATTR SpiceLine Rser=10m
SYMATTR InstName C1
SYMBOL res -48 352 R90
WINDOW 0 0 56 VBottom 2
WINDOW 3 32 56 VTop 2
SYMATTR InstName R1
SYMATTR Value 12K
SYMBOL res -32 112 R90
WINDOW 0 0 56 VBottom 2
WINDOW 3 32 56 VTop 2
SYMATTR InstName R2
SYMATTR Value 30K
SYMBOL res -128 192 R90
WINDOW 0 0 56 VBottom 2
WINDOW 3 32 56 VTop 2
SYMATTR InstName R3
SYMATTR Value 10K
SYMBOL cap -304 208 R0
WINDOW 0 30 21 Left 2
WINDOW 3 28 56 Left 2
SYMATTR InstName C2
SYMATTR Value 1n
SYMBOL cap -80 512 R90
WINDOW 0 0 32 VBottom 2
WINDOW 3 32 32 VTop 2
SYMATTR InstName C3
SYMATTR Value 1n
SYMBOL cap 304 224 R0
WINDOW 0 30 5 Left 2
WINDOW 3 37 44 Left 2
SYMATTR InstName C4
SYMATTR Value 100n
SYMBOL schottky 592 416 M270
WINDOW 0 32 32 VTop 2
WINDOW 3 0 32 VBottom 2
SYMATTR InstName D1
SYMATTR Value 1N5817
SYMATTR Description Diode
SYMATTR Type diode
SYMBOL cap -128 208 R0
WINDOW 0 35 21 Left 2
WINDOW 3 28 56 Left 2
SYMATTR InstName C5
SYMATTR Value 470p
SYMBOL schottky 400 144 M270
WINDOW 0 32 32 VTop 2
WINDOW 3 0 32 VBottom 2
SYMATTR InstName D2
SYMATTR Value 1N5817
SYMATTR Description Diode
SYMATTR Type diode
SYMBOL PowerProducts\\LTC3703-5 128 336 R0
SYMATTR InstName U1
SYMBOL res 640 640 M180
WINDOW 0 36 76 Left 2
WINDOW 3 36 40 Left 2
SYMATTR InstName R4
SYMATTR Value 100k
SYMBOL cap 752 544 R0
WINDOW 39 24 92 Left 2
SYMATTR SpiceLine Rser=100
SYMATTR InstName C6
SYMATTR Value 2.2n
SYMBOL res -288 272 R90
WINDOW 0 0 56 VBottom 2
WINDOW 3 32 56 VTop 2
SYMATTR InstName R5
SYMATTR Value 14.4k
SYMBOL cap -224 16 R0
SYMATTR InstName C7
SYMATTR Value 22µ
SYMBOL res 416 352 R90
WINDOW 0 0 56 VBottom 2
WINDOW 3 32 56 VTop 2
SYMATTR InstName R6
SYMATTR Value 10
SYMBOL res 864 288 R0
SYMATTR InstName Rload
SYMATTR Value 50
SYMBOL voltage 1488 272 R0
WINDOW 123 0 0 Left 0
WINDOW 39 0 0 Left 0
SYMATTR InstName V3
SYMATTR Value 6.35
SYMBOL res 672 288 R0
SYMATTR InstName RCrit
SYMATTR Value 39
TEXT 1392 440 Left 2 !.tran 4m startup
TEXT -496 360 Left 2 ;Preset regulable
