Version 4
SHEET 1 7892 2516
WIRE 672 -384 496 -384
WIRE 832 -384 672 -384
WIRE 1296 -384 832 -384
WIRE 672 -368 672 -384
WIRE 496 -352 496 -384
WIRE 832 -336 832 -384
WIRE 848 -336 832 -336
WIRE 1376 -336 1168 -336
WIRE 1648 -336 1376 -336
WIRE 1648 -320 1648 -336
WIRE 6000 -288 6000 -304
WIRE 672 -272 672 -304
WIRE 752 -256 736 -256
WIRE 848 -256 832 -256
WIRE 1200 -256 1168 -256
WIRE 1216 -256 1200 -256
WIRE 1296 -256 1296 -384
WIRE 1296 -256 1280 -256
WIRE 1376 -256 1376 -336
WIRE 1648 -224 1648 -240
WIRE 656 -176 592 -176
WIRE 768 -176 736 -176
WIRE 848 -176 768 -176
WIRE 1328 -176 1168 -176
WIRE 1200 -160 1200 -256
WIRE 5056 -144 5008 -144
WIRE 5168 -144 5136 -144
WIRE 5296 -144 5248 -144
WIRE 5008 -112 5008 -144
WIRE 496 -96 480 -96
WIRE 592 -96 592 -112
WIRE 592 -96 576 -96
WIRE 768 -96 768 -112
WIRE 768 -96 592 -96
WIRE 848 -96 768 -96
WIRE 1200 -96 1168 -96
WIRE 1376 -96 1376 -160
WIRE 1376 -96 1200 -96
WIRE 1408 -96 1376 -96
WIRE 1536 -96 1488 -96
WIRE 1568 -96 1536 -96
WIRE 1648 -96 1568 -96
WIRE 2544 -96 2304 -96
WIRE 2736 -96 2544 -96
WIRE 3168 -96 2736 -96
WIRE 3424 -96 3168 -96
WIRE 1568 -80 1568 -96
WIRE 1648 -80 1648 -96
WIRE 5200 -80 5168 -80
WIRE 2544 -48 2544 -96
WIRE 2736 -48 2736 -96
WIRE 5168 -48 5168 -80
WIRE 736 -16 720 -16
WIRE 848 -16 816 -16
WIRE 1200 -16 1168 -16
WIRE 1296 -16 1296 -256
WIRE 1296 -16 1280 -16
WIRE 3424 -16 3424 -96
WIRE 5200 -16 5200 -80
WIRE 2640 0 2608 0
WIRE 2672 0 2640 0
WIRE 5024 0 4944 0
WIRE 5136 0 5136 -144
WIRE 5136 0 5104 0
WIRE 5168 0 5136 0
WIRE 5296 0 5296 -144
WIRE 5376 0 5296 0
WIRE 5520 0 5376 0
WIRE 1376 16 1376 -96
WIRE 1408 16 1376 16
WIRE 1488 16 1472 16
WIRE 1648 16 1648 -16
WIRE 5296 16 5296 0
WIRE 5296 16 5232 16
WIRE 1568 32 1568 0
WIRE 3360 32 3280 32
WIRE 5168 32 5104 32
WIRE 5520 32 5520 0
WIRE 3280 48 3280 32
WIRE 848 64 832 64
WIRE 1296 64 1296 -16
WIRE 1296 64 1168 64
WIRE 1376 64 1376 16
WIRE 5104 80 5104 32
WIRE 5104 80 5040 80
WIRE 2544 96 2544 48
WIRE 2640 96 2640 0
WIRE 2640 96 2544 96
WIRE 2736 96 2736 48
WIRE 2960 96 2960 16
WIRE 2960 96 2736 96
WIRE 3040 96 2960 96
WIRE 3216 96 3040 96
WIRE 1536 128 1536 -96
WIRE 1648 128 1536 128
WIRE 2544 128 2544 96
WIRE 5200 128 5200 48
WIRE 848 144 720 144
WIRE 1328 144 1168 144
WIRE 3424 144 3424 80
WIRE 3424 144 3280 144
WIRE 5520 144 5520 112
WIRE 1536 160 1536 128
WIRE 1648 160 1648 128
WIRE 1376 176 1376 160
WIRE 3424 208 3424 144
WIRE 848 224 832 224
WIRE 1184 224 1168 224
WIRE 3424 224 3424 208
WIRE 5520 224 5520 208
WIRE 2544 256 2544 208
WIRE 592 272 592 -96
WIRE 1536 272 1536 240
WIRE 1536 272 592 272
WIRE 1648 272 1648 224
WIRE 1648 272 1536 272
WIRE 2304 336 2304 -96
WIRE 2480 336 2304 336
WIRE 3424 336 3424 304
WIRE 2480 400 2480 336
WIRE 2736 400 2736 96
WIRE 3424 400 3424 336
WIRE 3424 400 3136 400
WIRE 3488 400 3424 400
WIRE 3424 416 3424 400
WIRE 3520 416 3424 416
WIRE 3424 432 3424 416
WIRE 3520 432 3520 416
WIRE 2416 448 2368 448
WIRE 2880 448 2800 448
WIRE 2928 448 2880 448
WIRE 3136 480 3136 400
WIRE 2608 496 2480 496
WIRE 2736 496 2608 496
WIRE 3520 512 3520 496
WIRE 3520 512 3424 512
WIRE 3424 544 3424 512
WIRE 2304 592 2304 336
WIRE 2928 592 2928 448
WIRE 3136 592 3136 560
WIRE 3136 592 2928 592
WIRE 3136 608 3136 592
WIRE 3456 640 3360 640
WIRE 3360 656 3360 640
WIRE 3456 672 3456 640
WIRE 2304 704 2304 672
WIRE 2432 704 2304 704
WIRE 3136 704 3136 688
WIRE 3184 704 3136 704
WIRE 3296 704 3280 704
WIRE 2304 736 2304 704
WIRE 2608 736 2608 496
WIRE 3136 752 3136 704
WIRE 3360 752 3360 736
WIRE 3360 752 3264 752
WIRE 3360 768 3360 752
WIRE 2432 784 2432 704
WIRE 2432 784 2368 784
WIRE 2544 784 2432 784
WIRE 3296 832 3296 704
WIRE 5888 832 5728 832
WIRE 2304 896 2304 832
WIRE 2448 896 2304 896
WIRE 2608 896 2608 832
WIRE 2608 896 2448 896
WIRE 5520 896 5424 896
WIRE 5728 896 5728 832
WIRE 5760 896 5728 896
WIRE 5072 912 5024 912
WIRE 5232 912 5200 912
WIRE 5360 912 5232 912
WIRE 5888 912 5888 832
WIRE 5888 912 5840 912
WIRE 6000 912 5888 912
WIRE 5504 928 5424 928
WIRE 5568 928 5504 928
WIRE 5616 928 5568 928
WIRE 5712 928 5696 928
WIRE 5760 928 5712 928
WIRE 2448 944 2448 896
WIRE 5232 960 5232 912
WIRE 5504 960 5504 928
WIRE 6000 960 6000 912
WIRE 5232 1056 5232 1024
WIRE 5504 1056 5504 1024
WIRE 4160 1152 4144 1152
WIRE 2448 1184 2432 1184
WIRE 4160 1280 4160 1152
WIRE 4160 1280 4144 1280
WIRE 4256 1280 4256 1248
WIRE 4256 1280 4160 1280
WIRE 3536 1296 3504 1296
WIRE 3648 1296 3616 1296
WIRE 3824 1296 3776 1296
WIRE 4064 1296 4064 1152
WIRE 4064 1296 3904 1296
WIRE 4080 1296 4064 1296
WIRE 2448 1312 2448 1184
WIRE 2448 1312 2432 1312
WIRE 2544 1312 2544 1280
WIRE 2544 1312 2448 1312
WIRE 4352 1312 4352 1296
WIRE 4352 1312 4144 1312
WIRE 1824 1328 1792 1328
WIRE 1936 1328 1904 1328
WIRE 2112 1328 2064 1328
WIRE 2352 1328 2352 1184
WIRE 2352 1328 2192 1328
WIRE 2368 1328 2352 1328
WIRE 2640 1344 2640 1328
WIRE 2640 1344 2432 1344
WIRE 4352 1344 4352 1312
WIRE 5696 1360 5664 1360
WIRE 5808 1360 5776 1360
WIRE 5936 1360 5888 1360
WIRE 2640 1376 2640 1344
WIRE 6048 1376 6016 1376
WIRE 6144 1376 6128 1376
WIRE 6160 1376 6144 1376
WIRE 6272 1376 6240 1376
WIRE 5152 1392 5136 1392
WIRE 6272 1392 6272 1376
WIRE 3504 1408 3504 1296
WIRE 3552 1408 3504 1408
WIRE 3648 1408 3648 1296
WIRE 3648 1408 3616 1408
WIRE 5664 1408 5664 1360
WIRE 5136 1424 5136 1392
WIRE 5232 1424 5136 1424
WIRE 5840 1424 5808 1424
WIRE 1792 1440 1792 1328
WIRE 1840 1440 1792 1440
WIRE 1936 1440 1936 1328
WIRE 1936 1440 1904 1440
WIRE 6224 1440 6320 1408
WIRE 5808 1456 5808 1424
WIRE 6144 1456 6144 1376
WIRE 6192 1456 6144 1456
WIRE 5072 1472 5056 1472
WIRE 5936 1472 5936 1360
WIRE 6016 1472 5936 1472
WIRE 6128 1472 6096 1472
WIRE 6416 1472 6256 1472
WIRE 6544 1472 6416 1472
WIRE 6752 1472 6640 1472
WIRE 4432 1488 4336 1488
WIRE 5840 1488 5840 1424
WIRE 6128 1488 6128 1472
WIRE 6192 1488 6128 1488
WIRE 5232 1504 5232 1424
WIRE 5264 1504 5232 1504
WIRE 5664 1504 5632 1504
WIRE 5776 1504 5776 1360
WIRE 5776 1504 5744 1504
WIRE 5808 1504 5776 1504
WIRE 6128 1504 6128 1488
WIRE 2720 1520 2624 1520
WIRE 3648 1520 3648 1408
WIRE 3648 1520 3616 1520
WIRE 3888 1520 3648 1520
WIRE 4032 1520 3968 1520
WIRE 4128 1520 4112 1520
WIRE 5936 1520 5936 1472
WIRE 5936 1520 5872 1520
WIRE 6544 1520 6416 1520
WIRE 6688 1520 6656 1520
WIRE 3312 1536 3216 1536
WIRE 3504 1536 3504 1408
WIRE 3504 1536 3392 1536
WIRE 3552 1536 3504 1536
WIRE 4432 1536 4432 1488
WIRE 4432 1536 4416 1536
WIRE 5312 1536 5312 1520
WIRE 5808 1536 5776 1536
WIRE 6688 1536 6688 1520
WIRE 1936 1552 1936 1440
WIRE 1936 1552 1904 1552
WIRE 2176 1552 1936 1552
WIRE 2320 1552 2256 1552
WIRE 2416 1552 2400 1552
WIRE 3776 1552 3776 1296
WIRE 3776 1552 3616 1552
WIRE 4336 1552 4336 1488
WIRE 4336 1552 4320 1552
WIRE 4352 1552 4336 1552
WIRE 4976 1552 4976 1472
WIRE 6416 1552 6416 1520
WIRE 1600 1568 1504 1568
WIRE 1792 1568 1792 1440
WIRE 1792 1568 1680 1568
WIRE 1840 1568 1792 1568
WIRE 2720 1568 2720 1520
WIRE 2720 1568 2704 1568
WIRE 4480 1568 4416 1568
WIRE 4576 1568 4480 1568
WIRE 2064 1584 2064 1328
WIRE 2064 1584 1904 1584
WIRE 2624 1584 2624 1520
WIRE 2624 1584 2608 1584
WIRE 2640 1584 2624 1584
WIRE 4480 1584 4480 1568
WIRE 5776 1584 5776 1536
WIRE 2768 1600 2704 1600
WIRE 2864 1600 2768 1600
WIRE 6128 1600 6128 1568
WIRE 2768 1616 2768 1600
WIRE 4128 1616 4128 1520
WIRE 4128 1616 4112 1616
WIRE 4032 1632 4032 1520
WIRE 4048 1632 4032 1632
WIRE 4432 1632 4336 1632
WIRE 5136 1632 5136 1520
WIRE 5840 1632 5840 1552
WIRE 2416 1648 2416 1552
WIRE 2416 1648 2400 1648
WIRE 4240 1648 4240 1552
WIRE 4240 1648 4112 1648
WIRE 6688 1648 6688 1616
WIRE 2320 1664 2320 1552
WIRE 2336 1664 2320 1664
WIRE 2720 1664 2624 1664
WIRE 3776 1664 3776 1552
WIRE 2528 1680 2528 1584
WIRE 2528 1680 2400 1680
WIRE 4432 1680 4432 1632
WIRE 4432 1680 4416 1680
WIRE 2064 1696 2064 1584
WIRE 4240 1696 4240 1648
WIRE 4336 1696 4336 1632
WIRE 4336 1696 4320 1696
WIRE 4352 1696 4336 1696
WIRE 2720 1712 2720 1664
WIRE 2720 1712 2704 1712
WIRE 4480 1712 4416 1712
WIRE 4576 1712 4480 1712
WIRE 2528 1728 2528 1680
WIRE 2624 1728 2624 1664
WIRE 2624 1728 2608 1728
WIRE 2640 1728 2624 1728
WIRE 4480 1728 4480 1712
WIRE 6688 1728 6688 1712
WIRE 2768 1744 2704 1744
WIRE 2864 1744 2768 1744
WIRE 2768 1760 2768 1744
FLAG 1648 -224 0
FLAG 1376 176 0
FLAG 1184 224 0
FLAG 832 224 0
FLAG 1648 16 0
FLAG 720 -16 0
FLAG 736 -256 0
FLAG 720 144 0
FLAG 1488 16 0
FLAG 832 64 0
FLAG 480 -96 0
FLAG 1648 -336 IN
FLAG 672 -272 0
FLAG 1568 32 0
FLAG 2448 944 0
FLAG 2544 256 0
FLAG 3488 400 vout
FLAG 2880 448 Verr
FLAG 3136 832 0
FLAG 3296 832 0
FLAG 3360 848 0
FLAG 3168 -96 VCC
FLAG 2064 1776 0
FLAG 2416 1472 0
FLAG 2640 1456 0
FLAG 2400 1360 0
FLAG 2768 1696 0
FLAG 2768 1840 0
FLAG 3040 96 Tpaso
FLAG 1440 1424 Tpaso
FLAG 1872 1536 3.3V
FLAG 2368 1632 3.3V
FLAG 2400 1296 3.3V
FLAG 2672 1552 3.3V
FLAG 2672 1696 3.3V
FLAG 2368 1696 0
FLAG 2672 1760 0
FLAG 1872 1600 0
FLAG 2368 448 1.2V
FLAG 2960 1600 1.2V
FLAG 2960 1760 Verr
FLAG 3424 208 NodoS1
FLAG 3424 336 NodoS2
FLAG 2640 1232 NodoS1
FLAG 2544 1184 NodoS2
FLAG 3424 544 0
FLAG 1440 1616 0
FLAG 3776 1744 0
FLAG 4128 1440 0
FLAG 4352 1424 0
FLAG 4112 1328 0
FLAG 4480 1664 0
FLAG 4480 1808 0
FLAG 3152 1408 Tpaso
FLAG 3584 1504 3.3V
FLAG 4080 1600 3.3V
FLAG 4112 1264 3.3V
FLAG 4384 1520 3.3V
FLAG 4384 1664 3.3V
FLAG 4080 1664 0
FLAG 4384 1728 0
FLAG 3584 1568 0
FLAG 4656 1568 1.2V
FLAG 4656 1712 Verr
FLAG 4352 1216 NodoS1
FLAG 4256 1168 NodoS2
FLAG 3152 1584 0
FLAG 2960 -48 0
FLAG 5376 0 out
FLAG 5168 -48 0
FLAG 5520 224 0
FLAG 5040 80 Verr
FLAG 5808 1456 0
FLAG 6688 1728 0
FLAG 6000 -208 0
FLAG 6000 -304 tri
FLAG 6000 -16 0
FLAG 6000 -96 3.3V
FLAG 5632 1504 3.3V
FLAG 4944 0 3.3V
FLAG 5664 1408 0
FLAG 5840 1632 3.3V
FLAG 5200 128 3.3V
FLAG 5008 -112 0
FLAG 5312 1536 0
FLAG 6688 1520 NotQ
FLAG 6416 1632 0
FLAG 6752 1472 Q
FLAG 4976 1552 NotQ
FLAG 5136 1632 0
FLAG 5728 1584 Verr
FLAG 5232 1392 VCC
FLAG 6416 1472 Vout_ovlo
FLAG 6128 1600 0
FLAG 6320 1408 3.3V
FLAG 6016 1376 3.3V
FLAG 6272 1392 0
FLAG 6224 1504 0
FLAG 5776 1584 tri
FLAG 1648 -96 VCC
FLAG 3456 672 0
FLAG 5232 1056 0
FLAG 5504 1056 0
FLAG 5520 896 0
FLAG 6000 960 0
FLAG 5568 928 5V
FLAG 5712 928 1.2V
FLAG 496 -272 0
FLAG 5024 912 IN
SYMBOL nmos 1328 -256 R0
SYMATTR InstName Q1
SYMATTR Value Si7850DP
SYMBOL nmos 1328 64 R0
SYMATTR InstName Q2
SYMATTR Value Si7850DP
SYMBOL voltage 1648 -336 R0
WINDOW 123 0 0 Left 0
WINDOW 39 0 0 Left 0
SYMATTR InstName V2
SYMATTR Value PULSE(12 36 3m 1n 1n 5 5 1)
SYMBOL ind 1392 -80 R270
WINDOW 0 32 56 VTop 2
WINDOW 3 5 56 VBottom 2
SYMATTR InstName L1
SYMATTR Value 80µ
SYMBOL cap 1632 -80 R0
SYMATTR Value 20µ
SYMATTR SpiceLine Rser=10m
SYMATTR InstName C1
SYMBOL res 832 -32 R90
WINDOW 0 0 56 VBottom 2
WINDOW 3 32 56 VTop 2
SYMATTR InstName R1
SYMATTR Value 12K
SYMBOL res 848 -272 R90
WINDOW 0 0 56 VBottom 2
WINDOW 3 32 56 VTop 2
SYMATTR InstName R2
SYMATTR Value 30K
SYMBOL res 752 -192 R90
WINDOW 0 0 56 VBottom 2
WINDOW 3 32 56 VTop 2
SYMATTR InstName R3
SYMATTR Value 10K
SYMBOL cap 576 -176 R0
WINDOW 0 30 21 Left 2
WINDOW 3 28 56 Left 2
SYMATTR InstName C2
SYMATTR Value 1n
SYMBOL cap 352 192 R90
WINDOW 0 0 32 VBottom 2
WINDOW 3 32 32 VTop 2
SYMATTR InstName C3
SYMATTR Value 1n
SYMBOL cap 1184 -160 R0
WINDOW 0 30 5 Left 2
WINDOW 3 37 44 Left 2
SYMATTR InstName C4
SYMATTR Value 100n
SYMBOL schottky 1472 32 M270
WINDOW 0 32 32 VTop 2
WINDOW 3 0 32 VBottom 2
SYMATTR InstName D1
SYMATTR Value 1N5817
SYMATTR Description Diode
SYMATTR Type diode
SYMBOL cap 752 -176 R0
WINDOW 0 35 21 Left 2
WINDOW 3 28 56 Left 2
SYMATTR InstName C5
SYMATTR Value 470p
SYMBOL schottky 1280 -240 M270
WINDOW 0 32 32 VTop 2
WINDOW 3 0 32 VBottom 2
SYMATTR InstName D2
SYMATTR Value 1N5817
SYMATTR Description Diode
SYMATTR Type diode
SYMBOL PowerProducts\\LTC3703-5 1008 -48 R0
SYMATTR InstName U1
SYMBOL res 1520 256 M180
WINDOW 0 36 76 Left 2
WINDOW 3 36 40 Left 2
SYMATTR InstName R4
SYMATTR Value 100k
SYMBOL cap 1632 160 R0
WINDOW 39 24 92 Left 2
SYMATTR SpiceLine Rser=100
SYMATTR InstName C6
SYMATTR Value 2.2n
SYMBOL res 592 -112 R90
WINDOW 0 0 56 VBottom 2
WINDOW 3 32 56 VTop 2
SYMATTR InstName R5
SYMATTR Value 14.4k
SYMBOL cap 656 -368 R0
SYMATTR InstName C7
SYMATTR Value 22µ
SYMBOL res 1296 -32 R90
WINDOW 0 0 56 VBottom 2
WINDOW 3 32 56 VTop 2
SYMATTR InstName R6
SYMATTR Value 10
SYMBOL res 1552 -96 R0
SYMATTR InstName RCrit
SYMATTR Value 39
SYMBOL npn 2544 736 R0
SYMATTR InstName Q3
SYMATTR Value 2N2222
SYMBOL npn 2368 736 M0
SYMATTR InstName Q4
SYMATTR Value 2N2222
SYMBOL npn 2800 400 M0
SYMATTR InstName Q5
SYMATTR Value 2N2222
SYMBOL npn 2416 400 R0
SYMATTR InstName Q6
SYMATTR Value 2N2222
SYMBOL pnp 2672 48 M180
SYMATTR InstName Q7
SYMATTR Value BC557B
SYMBOL pnp 2608 48 R180
SYMATTR InstName Q8
SYMATTR Value BC557B
SYMBOL res 2288 576 R0
SYMATTR InstName R7
SYMATTR Value 1325
SYMBOL res 2560 112 M0
SYMATTR InstName R8
SYMATTR Value 2650
SYMBOL pnp 3360 80 M180
SYMATTR InstName Q9
SYMATTR Value 2SA2210
SYMBOL res 3120 464 R0
SYMATTR InstName R9
SYMATTR Value 5k6
SYMBOL res 3120 592 R0
SYMATTR InstName R10
SYMATTR Value 1k8
SYMBOL res 3120 736 R0
SYMATTR InstName R11
SYMATTR Value 1k5
SYMBOL res 3344 752 R0
SYMATTR InstName R12
SYMATTR Value 10k
SYMBOL nmos 3184 752 R270
SYMATTR InstName M1
SYMATTR Value BS170
SYMBOL res 3344 640 R0
SYMATTR InstName R13
SYMATTR Value 1K
SYMBOL npn 1504 1520 M0
SYMATTR InstName Q10
SYMATTR Value 2N2222
SYMBOL res 1696 1552 R90
WINDOW 0 0 56 VBottom 2
WINDOW 3 32 56 VTop 2
SYMATTR InstName R14
SYMATTR Value 100
SYMBOL OpAmps\\UniversalOpAmp 1872 1568 M0
SYMATTR InstName U2
SYMBOL res 1920 1312 R90
WINDOW 0 0 56 VBottom 2
WINDOW 3 32 56 VTop 2
SYMATTR InstName R15
SYMATTR Value 5k6
SYMBOL cap 1904 1424 R90
WINDOW 0 0 32 VBottom 2
WINDOW 3 32 32 VTop 2
SYMATTR InstName C8
SYMATTR Value 22n
SYMBOL res 2048 1680 R0
SYMATTR InstName R16
SYMATTR Value 5k6
SYMBOL res 2272 1536 R90
WINDOW 0 0 56 VBottom 2
WINDOW 3 32 56 VTop 2
SYMATTR InstName R17
SYMATTR Value 100
SYMBOL res 2208 1312 R90
WINDOW 0 0 56 VBottom 2
WINDOW 3 32 56 VTop 2
SYMATTR InstName R18
SYMATTR Value 100
SYMBOL OpAmps\\UniversalOpAmp 2400 1328 M0
SYMATTR InstName U3
SYMBOL res 2448 1168 R90
WINDOW 0 0 56 VBottom 2
WINDOW 3 28 61 VTop 2
SYMATTR InstName R19
SYMATTR Value 10k
SYMBOL res 2560 1296 R180
WINDOW 0 36 76 Left 2
WINDOW 3 36 40 Left 2
SYMATTR InstName R20
SYMATTR Value 1k
SYMBOL res 2656 1472 R180
WINDOW 0 36 76 Left 2
WINDOW 3 36 40 Left 2
SYMATTR InstName R21
SYMATTR Value 10k
SYMBOL res 2624 1232 R0
SYMATTR InstName R22
SYMATTR Value 1k
SYMBOL OpAmps\\UniversalOpAmp 2368 1664 M0
SYMATTR InstName U4
SYMBOL res 2416 1536 R90
WINDOW 0 0 56 VBottom 2
WINDOW 3 32 56 VTop 2
SYMATTR InstName R23
SYMATTR Value 100k
SYMBOL res 2400 1456 R0
SYMATTR InstName R24
SYMATTR Value 100k
SYMBOL res 2624 1568 R90
WINDOW 0 0 56 VBottom 2
WINDOW 3 32 56 VTop 2
SYMATTR InstName R25
SYMATTR Value 100k
SYMBOL OpAmps\\UniversalOpAmp 2672 1584 M0
SYMATTR InstName U5
SYMBOL res 2752 1600 R0
SYMATTR InstName R26
SYMATTR Value 100k
SYMBOL res 2960 1584 R90
WINDOW 0 0 56 VBottom 2
WINDOW 3 32 56 VTop 2
SYMATTR InstName R27
SYMATTR Value 510k
SYMBOL res 2624 1712 R90
WINDOW 0 0 56 VBottom 2
WINDOW 3 32 56 VTop 2
SYMATTR InstName R28
SYMATTR Value 100k
SYMBOL OpAmps\\UniversalOpAmp 2672 1728 M0
SYMATTR InstName U6
SYMBOL res 2752 1744 R0
SYMATTR InstName R29
SYMATTR Value 470k
SYMBOL res 2960 1728 R90
WINDOW 0 0 56 VBottom 2
WINDOW 3 32 56 VTop 2
SYMATTR InstName R30
SYMATTR Value 560k
SYMBOL res 3408 208 R0
SYMATTR InstName Rs1
SYMATTR Value 0.1
SYMBOL res 3408 416 R0
SYMATTR InstName Rl1
SYMATTR Value 100
SYMBOL res 1424 1424 R0
SYMATTR InstName R31
SYMATTR Value 10
SYMBOL npn 3216 48 R0
SYMATTR InstName Q11
SYMATTR Value 2N2222
SYMBOL npn 3216 1488 M0
SYMATTR InstName Q12
SYMATTR Value 2N2222
SYMBOL res 3408 1520 R90
WINDOW 0 0 56 VBottom 2
WINDOW 3 32 56 VTop 2
SYMATTR InstName R32
SYMATTR Value 100
SYMBOL OpAmps\\UniversalOpAmp 3584 1536 M0
SYMATTR InstName U7
SYMBOL res 3632 1280 R90
WINDOW 0 0 56 VBottom 2
WINDOW 3 32 56 VTop 2
SYMATTR InstName R33
SYMATTR Value 5k6
SYMBOL cap 3616 1392 R90
WINDOW 0 0 32 VBottom 2
WINDOW 3 32 32 VTop 2
SYMATTR InstName C9
SYMATTR Value 22n
SYMBOL res 3760 1648 R0
SYMATTR InstName R34
SYMATTR Value 5k6
SYMBOL res 3984 1504 R90
WINDOW 0 0 56 VBottom 2
WINDOW 3 32 56 VTop 2
SYMATTR InstName R35
SYMATTR Value 100
SYMBOL res 3920 1280 R90
WINDOW 0 0 56 VBottom 2
WINDOW 3 32 56 VTop 2
SYMATTR InstName R36
SYMATTR Value 100
SYMBOL OpAmps\\UniversalOpAmp 4112 1296 M0
SYMATTR InstName U8
SYMBOL res 4160 1136 R90
WINDOW 0 0 56 VBottom 2
WINDOW 3 28 61 VTop 2
SYMATTR InstName R37
SYMATTR Value 5k1
SYMBOL res 4272 1264 R180
WINDOW 0 36 76 Left 2
WINDOW 3 36 40 Left 2
SYMATTR InstName R38
SYMATTR Value 1k
SYMBOL res 4368 1440 R180
WINDOW 0 36 76 Left 2
WINDOW 3 36 40 Left 2
SYMATTR InstName R39
SYMATTR Value 5k1
SYMBOL res 4336 1200 R0
SYMATTR InstName R40
SYMATTR Value 1k
SYMBOL OpAmps\\UniversalOpAmp 4080 1632 M0
SYMATTR InstName U9
SYMBOL res 4128 1504 R90
WINDOW 0 0 56 VBottom 2
WINDOW 3 32 56 VTop 2
SYMATTR InstName R41
SYMATTR Value 100k
SYMBOL res 4112 1424 R0
SYMATTR InstName R42
SYMATTR Value 100k
SYMBOL res 4336 1536 R90
WINDOW 0 0 56 VBottom 2
WINDOW 3 32 56 VTop 2
SYMATTR InstName R43
SYMATTR Value 100k
SYMBOL OpAmps\\UniversalOpAmp 4384 1552 M0
SYMATTR InstName U10
SYMBOL res 4464 1568 R0
SYMATTR InstName R44
SYMATTR Value 100k
SYMBOL res 4672 1552 R90
WINDOW 0 0 56 VBottom 2
WINDOW 3 32 56 VTop 2
SYMATTR InstName R45
SYMATTR Value 510k
SYMBOL res 4336 1680 R90
WINDOW 0 0 56 VBottom 2
WINDOW 3 32 56 VTop 2
SYMATTR InstName R46
SYMATTR Value 100k
SYMBOL OpAmps\\UniversalOpAmp 4384 1696 M0
SYMATTR InstName U11
SYMBOL res 4464 1712 R0
SYMATTR InstName R47
SYMATTR Value 470k
SYMBOL res 4672 1696 R90
WINDOW 0 0 56 VBottom 2
WINDOW 3 32 56 VTop 2
SYMATTR InstName R48
SYMATTR Value 560k
SYMBOL res 3136 1392 R0
SYMATTR InstName R49
SYMATTR Value 10
SYMBOL cap 3504 432 R0
SYMATTR InstName C11
SYMATTR Value 1µ
SYMBOL cap 2944 -48 R0
SYMATTR InstName C12
SYMATTR Value 100n
SYMBOL OpAmps\\UniversalOpamp2 5200 16 M180
SYMATTR InstName U12
SYMBOL res 5120 -16 R90
WINDOW 0 0 56 VBottom 2
WINDOW 3 32 56 VTop 2
SYMATTR InstName R50
SYMATTR Value 1k
SYMBOL res 5264 -160 R90
WINDOW 0 0 56 VBottom 2
WINDOW 3 32 56 VTop 2
SYMATTR InstName R51
SYMATTR Value 10k
SYMBOL LED 5504 144 R0
SYMATTR InstName D3
SYMATTR Value QTLP690C
SYMATTR Description Diode
SYMATTR Type diode
SYMBOL res 5504 16 R0
SYMATTR InstName R52
SYMATTR Value 470
SYMBOL voltage 6000 -304 R0
WINDOW 3 -309 -113 Left 2
WINDOW 123 0 0 Left 0
WINDOW 39 0 0 Left 0
SYMATTR Value PULSE(0.8 1.6 0 1m 1m 1u 2m 5k)
SYMATTR InstName V8
SYMBOL OpAmps\\UniversalOpamp2 5840 1520 M180
SYMATTR InstName U13
SYMBOL res 5760 1488 R90
WINDOW 0 0 56 VBottom 2
WINDOW 3 32 56 VTop 2
SYMATTR InstName R53
SYMATTR Value 3k3
SYMBOL res 5904 1344 R90
WINDOW 0 0 56 VBottom 2
WINDOW 3 32 56 VTop 2
SYMATTR InstName R54
SYMATTR Value 51k
SYMBOL LED 6672 1648 R0
SYMATTR InstName D4
SYMATTR Value QTLP690C
SYMATTR Description Diode
SYMATTR Type diode
SYMBOL res 6672 1520 R0
SYMATTR InstName R55
SYMATTR Value 100
SYMBOL voltage 6000 -112 R0
WINDOW 123 0 0 Left 0
WINDOW 39 0 0 Left 0
SYMATTR InstName V9
SYMATTR Value 3.3
SYMBOL res 5792 1344 R90
WINDOW 0 0 56 VBottom 2
WINDOW 3 32 56 VTop 2
SYMATTR InstName R56
SYMATTR Value 2k2
SYMBOL res 5152 -160 R90
WINDOW 0 0 56 VBottom 2
WINDOW 3 32 56 VTop 2
SYMATTR InstName R57
SYMATTR Value 470
SYMBOL nmos 5264 1424 R0
SYMATTR InstName M2
SYMATTR Value BSC052N03LS
SYMBOL Digital\\srflop 6592 1424 R0
SYMATTR InstName A1
SYMBOL voltage 6416 1536 R0
WINDOW 3 -139 174 Left 2
WINDOW 123 0 0 Left 0
WINDOW 39 0 0 Left 0
SYMATTR Value PULSE(0 3.3 1m 1n 1n 100u 8m 1)
SYMATTR InstName V10
SYMBOL npn 5072 1424 R0
SYMATTR InstName Q13
SYMATTR Value 2N2222
SYMBOL res 5248 1376 R90
WINDOW 0 0 56 VBottom 2
WINDOW 3 32 56 VTop 2
SYMATTR InstName R58
SYMATTR Value 1k
SYMBOL res 5072 1456 R90
WINDOW 0 0 56 VBottom 2
WINDOW 3 32 56 VTop 2
SYMATTR InstName R59
SYMATTR Value 100
SYMBOL res 6112 1456 R90
WINDOW 0 0 56 VBottom 2
WINDOW 3 32 56 VTop 2
SYMATTR InstName R60
SYMATTR Value 1k
SYMBOL cap 6112 1504 R0
SYMATTR InstName C13
SYMATTR Value 200n
SYMBOL res 6144 1360 R90
WINDOW 0 0 56 VBottom 2
WINDOW 3 32 56 VTop 2
SYMATTR InstName R61
SYMATTR Value 10k
SYMBOL res 6256 1360 R90
WINDOW 0 0 56 VBottom 2
WINDOW 3 32 56 VTop 2
SYMATTR InstName R62
SYMATTR Value 10k
SYMBOL OpAmps\\UniversalOpamp2 6224 1472 R0
SYMATTR InstName U14
SYMBOL AutoGenerated\\78L05 5392 912 R0
SYMATTR InstName U16
SYMBOL cap 5216 960 R0
SYMATTR InstName C16
SYMATTR Value 0.22µ
SYMBOL cap 5488 960 R0
SYMATTR InstName C17
SYMATTR Value 0.1µ
SYMBOL AutoGenerated\\LM385 5808 912 R180
SYMATTR InstName U17
SYMBOL res 5712 912 R90
WINDOW 0 0 56 VBottom 2
WINDOW 3 32 56 VTop 2
SYMATTR InstName R69
SYMATTR Value 38k
SYMBOL voltage 496 -368 R0
SYMATTR InstName V1
SYMATTR Value 5
SYMBOL diode 5136 928 R270
WINDOW 0 32 32 VTop 2
WINDOW 3 0 32 VBottom 2
SYMATTR InstName D5
SYMATTR Value 1N914
SYMBOL diode 5072 928 R270
WINDOW 0 32 32 VTop 2
WINDOW 3 0 32 VBottom 2
SYMATTR InstName D6
SYMATTR Value 1N914
TEXT 1424 688 Left 2 !;tran 4m startup
TEXT -496 360 Left 2 ;Preset regulable
TEXT 1424 760 Left 2 !;op
TEXT 1424 728 Left 2 !;tran 20m
TEXT 1424 800 Left 2 !;dc V2 6.15 6.55 0.1
TEXT 3808 8 Left 2 !.lib 2SA2210-SPICE-D.LIB
TEXT 3832 472 Left 2 !;step param Rl 0.00001 10 0.1
TEXT 3832 552 Left 2 !.model BS170 VDMOS VTO=1.824 RG=270 RS=1.572 RD=1.436 RB=.768 KP=.1233 Cgdmax=20p Cgdmin=3p CGS=28p Cjo=35p Rds=1.2E8 IS=5p Bv=60 Ibv=10u Tt=161.6n
TEXT 1416 1168 Left 2 ;LDOA
TEXT 3120 1128 Left 2 ;LDOB
TEXT 3848 296 Left 2 ;;ac dec 1000 10 100meg
TEXT 3808 64 Left 2 !.tran 0 10m 0
TEXT 6312 1752 Left 2 ;Pulsador Normal Cerrado
TEXT 5568 -184 Left 2 ;UVLO
TEXT 6768 1328 Left 2 ;OVLO
TEXT 5896 784 Left 2 ;Fuente Support
RECTANGLE Normal 3024 1920 1360 1104 2
RECTANGLE Normal 4768 1920 3056 1072 2
RECTANGLE Normal 5696 256 4864 -208 2
RECTANGLE Normal 6896 1824 4928 1296 2
RECTANGLE Normal 6096 1136 4928 752 2
