Version 4
SHEET 1 5396 1524
WIRE 2752 -544 2704 -544
WIRE 2864 -544 2832 -544
WIRE 2992 -544 2944 -544
WIRE 3568 -544 3568 -560
WIRE 3952 -544 3920 -544
WIRE 4064 -544 4032 -544
WIRE 4192 -544 4144 -544
WIRE 4304 -528 4272 -528
WIRE 4400 -528 4384 -528
WIRE 4416 -528 4400 -528
WIRE 4528 -528 4496 -528
WIRE 2704 -512 2704 -544
WIRE 4528 -512 4528 -528
WIRE -128 -496 -432 -496
WIRE 112 -496 -128 -496
WIRE 304 -496 112 -496
WIRE 736 -496 304 -496
WIRE 992 -496 736 -496
WIRE 3920 -496 3920 -544
WIRE 2896 -480 2864 -480
WIRE 4096 -480 4064 -480
WIRE 4480 -464 4576 -496
WIRE 112 -448 112 -496
WIRE 304 -448 304 -496
WIRE 2864 -448 2864 -480
WIRE 4064 -448 4064 -480
WIRE 4400 -448 4400 -528
WIRE 4448 -448 4400 -448
WIRE 4192 -432 4192 -544
WIRE 4272 -432 4192 -432
WIRE 4384 -432 4352 -432
WIRE 4672 -432 4512 -432
WIRE 4800 -432 4672 -432
WIRE 5008 -432 4896 -432
WIRE 992 -416 992 -496
WIRE 2896 -416 2896 -480
WIRE 4096 -416 4096 -480
WIRE 4384 -416 4384 -432
WIRE 4448 -416 4384 -416
WIRE 208 -400 176 -400
WIRE 240 -400 208 -400
WIRE 2720 -400 2640 -400
WIRE 2832 -400 2832 -544
WIRE 2832 -400 2800 -400
WIRE 2864 -400 2832 -400
WIRE 2992 -400 2992 -544
WIRE 3072 -400 2992 -400
WIRE 3216 -400 3072 -400
WIRE 3920 -400 3888 -400
WIRE 4032 -400 4032 -544
WIRE 4032 -400 4000 -400
WIRE 4064 -400 4032 -400
WIRE 4384 -400 4384 -416
WIRE 2992 -384 2992 -400
WIRE 2992 -384 2928 -384
WIRE 4192 -384 4192 -432
WIRE 4192 -384 4128 -384
WIRE 4800 -384 4672 -384
WIRE 4944 -384 4912 -384
WIRE 928 -368 848 -368
WIRE 2864 -368 2800 -368
WIRE 3216 -368 3216 -400
WIRE 4064 -368 4032 -368
WIRE 4944 -368 4944 -384
WIRE 848 -352 848 -368
WIRE 4672 -352 4672 -384
WIRE 2800 -320 2800 -368
WIRE 2800 -320 2736 -320
WIRE 4032 -320 4032 -368
WIRE 112 -304 112 -352
WIRE 208 -304 208 -400
WIRE 208 -304 112 -304
WIRE 304 -304 304 -352
WIRE 608 -304 304 -304
WIRE 688 -304 608 -304
WIRE 752 -304 752 -384
WIRE 752 -304 688 -304
WIRE 784 -304 752 -304
WIRE 4384 -304 4384 -336
WIRE 112 -272 112 -304
WIRE 2896 -272 2896 -352
WIRE 4096 -272 4096 -352
WIRE 528 -256 512 -256
WIRE 992 -256 992 -320
WIRE 992 -256 848 -256
WIRE 3216 -256 3216 -288
WIRE 4944 -256 4944 -288
WIRE 512 -224 512 -256
WIRE 608 -224 512 -224
WIRE 688 -224 688 -304
WIRE 992 -192 992 -256
WIRE 448 -176 432 -176
WIRE 992 -176 992 -192
WIRE 3216 -176 3216 -192
WIRE 4944 -176 4944 -192
WIRE 112 -144 112 -192
WIRE 608 -144 608 -224
WIRE 640 -144 608 -144
WIRE 688 -112 688 -128
WIRE -432 -96 -432 -496
WIRE 352 -96 352 -176
WIRE -128 -64 -128 -496
WIRE 48 -64 -128 -64
WIRE 992 -64 992 -96
WIRE 512 -16 512 -128
WIRE 48 0 48 -64
WIRE 304 0 304 -304
WIRE 992 0 992 -64
WIRE 992 0 704 0
WIRE 1056 0 992 0
WIRE -432 16 -432 -16
WIRE 992 16 992 0
WIRE 1088 16 992 16
WIRE 992 32 992 16
WIRE 1088 32 1088 16
WIRE -16 48 -64 48
WIRE 448 48 368 48
WIRE 640 48 448 48
WIRE 704 80 704 0
WIRE 176 96 48 96
WIRE 304 96 176 96
WIRE 1088 112 1088 96
WIRE 1088 112 992 112
WIRE 992 144 992 112
WIRE 640 176 640 48
WIRE 704 176 704 160
WIRE 704 176 640 176
WIRE -128 192 -128 -64
WIRE -432 208 -432 176
WIRE 704 208 704 176
WIRE -128 304 -128 272
WIRE 0 304 -128 304
WIRE 704 304 704 288
WIRE 752 304 704 304
WIRE 864 304 848 304
WIRE -432 320 -432 288
WIRE -128 336 -128 304
WIRE 176 336 176 96
WIRE 704 352 704 304
WIRE 928 352 928 336
WIRE 928 352 832 352
WIRE 928 368 928 352
WIRE 0 384 0 304
WIRE 0 384 -64 384
WIRE 112 384 0 384
WIRE 864 432 864 304
WIRE -128 496 -128 432
WIRE 16 496 -128 496
WIRE 176 496 176 432
WIRE 176 496 16 496
WIRE 16 544 16 496
WIRE 1728 752 1712 752
WIRE 16 784 0 784
WIRE 1728 880 1728 752
WIRE 1728 880 1712 880
WIRE 1824 880 1824 848
WIRE 1824 880 1728 880
WIRE 1104 896 1072 896
WIRE 1216 896 1184 896
WIRE 1392 896 1344 896
WIRE 1632 896 1632 752
WIRE 1632 896 1472 896
WIRE 1648 896 1632 896
WIRE 16 912 16 784
WIRE 16 912 0 912
WIRE 112 912 112 880
WIRE 112 912 16 912
WIRE 1920 912 1920 896
WIRE 1920 912 1712 912
WIRE -608 928 -640 928
WIRE -496 928 -528 928
WIRE -320 928 -368 928
WIRE -80 928 -80 784
WIRE -80 928 -240 928
WIRE -64 928 -80 928
WIRE 208 944 208 928
WIRE 208 944 0 944
WIRE 1920 944 1920 912
WIRE 208 976 208 944
WIRE 1072 1008 1072 896
WIRE 1120 1008 1072 1008
WIRE 1216 1008 1216 896
WIRE 1216 1008 1184 1008
WIRE -640 1040 -640 928
WIRE -592 1040 -640 1040
WIRE -496 1040 -496 928
WIRE -496 1040 -528 1040
WIRE 2000 1088 1904 1088
WIRE 288 1120 192 1120
WIRE 1216 1120 1216 1008
WIRE 1216 1120 1184 1120
WIRE 1456 1120 1216 1120
WIRE 1600 1120 1536 1120
WIRE 1696 1120 1680 1120
WIRE 880 1136 784 1136
WIRE 1072 1136 1072 1008
WIRE 1072 1136 960 1136
WIRE 1120 1136 1072 1136
WIRE 2000 1136 2000 1088
WIRE 2000 1136 1984 1136
WIRE -496 1152 -496 1040
WIRE -496 1152 -528 1152
WIRE -256 1152 -496 1152
WIRE -112 1152 -176 1152
WIRE -16 1152 -32 1152
WIRE 1344 1152 1344 896
WIRE 1344 1152 1184 1152
WIRE 1904 1152 1904 1088
WIRE 1904 1152 1888 1152
WIRE 1920 1152 1904 1152
WIRE -832 1168 -928 1168
WIRE -640 1168 -640 1040
WIRE -640 1168 -752 1168
WIRE -592 1168 -640 1168
WIRE 288 1168 288 1120
WIRE 288 1168 272 1168
WIRE 2048 1168 1984 1168
WIRE 2144 1168 2048 1168
WIRE -368 1184 -368 928
WIRE -368 1184 -528 1184
WIRE 192 1184 192 1120
WIRE 192 1184 176 1184
WIRE 208 1184 192 1184
WIRE 784 1184 752 1184
WIRE 2048 1184 2048 1168
WIRE 336 1200 272 1200
WIRE 432 1200 336 1200
WIRE 336 1216 336 1200
WIRE 752 1216 752 1184
WIRE 768 1216 752 1216
WIRE 864 1216 848 1216
WIRE 1696 1216 1696 1120
WIRE 1696 1216 1680 1216
WIRE 1600 1232 1600 1120
WIRE 1616 1232 1600 1232
WIRE 2000 1232 1904 1232
WIRE -16 1248 -16 1152
WIRE -16 1248 -32 1248
WIRE 752 1248 752 1216
WIRE 1808 1248 1808 1152
WIRE 1808 1248 1680 1248
WIRE -112 1264 -112 1152
WIRE -96 1264 -112 1264
WIRE 288 1264 192 1264
WIRE 1344 1264 1344 1152
WIRE 96 1280 96 1184
WIRE 96 1280 -32 1280
WIRE 2000 1280 2000 1232
WIRE 2000 1280 1984 1280
WIRE -368 1296 -368 1184
WIRE 1808 1296 1808 1248
WIRE 1904 1296 1904 1232
WIRE 1904 1296 1888 1296
WIRE 1920 1296 1904 1296
WIRE 288 1312 288 1264
WIRE 288 1312 272 1312
WIRE 2048 1312 1984 1312
WIRE 2144 1312 2048 1312
WIRE 96 1328 96 1280
WIRE 192 1328 192 1264
WIRE 192 1328 176 1328
WIRE 208 1328 192 1328
WIRE 2048 1328 2048 1312
WIRE 336 1344 272 1344
WIRE 432 1344 336 1344
WIRE 336 1360 336 1344
FLAG 16 544 0
FLAG -432 320 0
FLAG -432 16 0
FLAG 112 -144 0
FLAG 1056 0 vout
FLAG 448 48 Verr
FLAG 704 432 0
FLAG 864 432 0
FLAG 928 448 0
FLAG 736 -496 VCC
FLAG -368 1376 0
FLAG -16 1072 0
FLAG 208 1056 0
FLAG -32 960 0
FLAG 336 1296 0
FLAG 336 1440 0
FLAG 608 -304 Tpaso
FLAG -992 1024 Tpaso
FLAG -560 1136 VCC
FLAG -64 1232 VCC
FLAG -32 896 VCC
FLAG 240 1152 VCC
FLAG 240 1296 VCC
FLAG -64 1296 0
FLAG 240 1360 0
FLAG -560 1200 0
FLAG -432 176 Vref
FLAG -64 48 Vref
FLAG 528 1200 Vref
FLAG 528 1360 Verr
FLAG 992 -192 NodoS1
FLAG 992 -64 NodoS2
FLAG 208 832 NodoS1
FLAG 112 784 NodoS2
FLAG 992 144 0
FLAG -992 1216 0
FLAG 928 176 0
FLAG 1344 1344 0
FLAG 1696 1040 0
FLAG 1920 1024 0
FLAG 1680 928 0
FLAG 2048 1264 0
FLAG 2048 1408 0
FLAG 720 1008 Tpaso
FLAG 1152 1104 VCC
FLAG 1648 1200 VCC
FLAG 1680 864 VCC
FLAG 1952 1120 VCC
FLAG 1952 1264 VCC
FLAG 1648 1264 0
FLAG 1952 1328 0
FLAG 1152 1168 0
FLAG 2224 1168 Vref
FLAG 2224 1312 Verr
FLAG 1920 816 NodoS1
FLAG 1824 768 NodoS2
FLAG 720 1184 0
FLAG 752 1392 0
FLAG 752 -448 0
FLAG 3072 -400 out
FLAG 2864 -448 0
FLAG 3216 -176 0
FLAG 2736 -320 Verr
FLAG 4064 -448 0
FLAG 4944 -176 0
FLAG 3568 -464 0
FLAG 3568 -560 tri
FLAG 3568 -272 0
FLAG 3568 -352 Vref2
FLAG 3888 -400 Vref2
FLAG 2640 -400 Vref2
FLAG 3920 -496 0
FLAG 4096 -272 Vref2
FLAG 2896 -272 Vref2
FLAG 2704 -512 0
FLAG 688 -112 0
FLAG 4944 -384 NotQ
FLAG 4672 -272 0
FLAG 5008 -432 Q
FLAG 352 -96 NotQ
FLAG 512 -16 0
FLAG 3984 -320 Verr
FLAG 608 -256 VCC
FLAG 4672 -432 Vout_ovlo
FLAG 4384 -304 0
FLAG 4576 -496 Vref2
FLAG 4272 -528 Vref2
FLAG 4528 -512 0
FLAG 4480 -400 0
FLAG 4032 -320 tri
SYMBOL npn 112 336 R0
SYMATTR InstName Q1
SYMATTR Value 2N2222
SYMBOL npn -64 336 M0
SYMATTR InstName Q2
SYMATTR Value 2N2222
SYMBOL npn 368 0 M0
SYMATTR InstName Q3
SYMATTR Value 2N2222
SYMBOL npn -16 0 R0
SYMATTR InstName Q4
SYMATTR Value 2N2222
SYMBOL pnp 240 -352 M180
SYMATTR InstName Q7
SYMATTR Value BC557B
SYMBOL pnp 176 -352 R180
SYMATTR InstName Q8
SYMATTR Value BC557B
SYMBOL res -144 176 R0
SYMATTR InstName R1
SYMATTR Value 1325
SYMBOL res 128 -288 M0
SYMATTR InstName R2
SYMATTR Value 2650
SYMBOL pnp 928 -320 M180
SYMATTR InstName Q9
SYMATTR Value 2SA2210
SYMBOL voltage -432 192 R0
WINDOW 123 0 0 Left 0
WINDOW 39 0 0 Left 0
SYMATTR InstName V1
SYMATTR Value 1.2
SYMBOL voltage -432 -112 R0
WINDOW 123 0 0 Left 0
WINDOW 39 0 0 Left 0
SYMATTR InstName V2
SYMATTR Value 6.35
SYMBOL res 688 64 R0
SYMATTR InstName R4
SYMATTR Value 5k6
SYMBOL res 688 192 R0
SYMATTR InstName R3
SYMATTR Value 1k8
SYMBOL res 688 336 R0
SYMATTR InstName R5
SYMATTR Value 1k5
SYMBOL res 912 352 R0
SYMATTR InstName R8
SYMATTR Value 10k
SYMBOL nmos 752 352 R270
SYMATTR InstName M2
SYMATTR Value BS170
SYMBOL res 912 240 R0
SYMATTR InstName R7
SYMATTR Value 1K
SYMBOL npn -928 1120 M0
SYMATTR InstName Q10
SYMATTR Value 2N2222
SYMBOL res -736 1152 R90
WINDOW 0 0 56 VBottom 2
WINDOW 3 32 56 VTop 2
SYMATTR InstName R30
SYMATTR Value 100
SYMBOL OpAmps\\UniversalOpAmp -560 1168 M0
SYMATTR InstName U1
SYMBOL res -512 912 R90
WINDOW 0 0 56 VBottom 2
WINDOW 3 32 56 VTop 2
SYMATTR InstName R10
SYMATTR Value 5k6
SYMBOL cap -528 1024 R90
WINDOW 0 0 32 VBottom 2
WINDOW 3 32 32 VTop 2
SYMATTR InstName C1
SYMATTR Value 22n
SYMBOL res -384 1280 R0
SYMATTR InstName R9
SYMATTR Value 5k6
SYMBOL res -160 1136 R90
WINDOW 0 0 56 VBottom 2
WINDOW 3 32 56 VTop 2
SYMATTR InstName R11
SYMATTR Value 100
SYMBOL res -224 912 R90
WINDOW 0 0 56 VBottom 2
WINDOW 3 32 56 VTop 2
SYMATTR InstName R12
SYMATTR Value 100
SYMBOL OpAmps\\UniversalOpAmp -32 928 M0
SYMATTR InstName U2
SYMBOL res 16 768 R90
WINDOW 0 0 56 VBottom 2
WINDOW 3 28 61 VTop 2
SYMATTR InstName R13
SYMATTR Value 10k
SYMBOL res 128 896 R180
WINDOW 0 36 76 Left 2
WINDOW 3 36 40 Left 2
SYMATTR InstName R14
SYMATTR Value 1k
SYMBOL res 224 1072 R180
WINDOW 0 36 76 Left 2
WINDOW 3 36 40 Left 2
SYMATTR InstName R15
SYMATTR Value 10k
SYMBOL res 192 832 R0
SYMATTR InstName R16
SYMATTR Value 1k
SYMBOL OpAmps\\UniversalOpAmp -64 1264 M0
SYMATTR InstName U3
SYMBOL res -16 1136 R90
WINDOW 0 0 56 VBottom 2
WINDOW 3 32 56 VTop 2
SYMATTR InstName R17
SYMATTR Value 100k
SYMBOL res -32 1056 R0
SYMATTR InstName R18
SYMATTR Value 100k
SYMBOL res 192 1168 R90
WINDOW 0 0 56 VBottom 2
WINDOW 3 32 56 VTop 2
SYMATTR InstName R19
SYMATTR Value 100k
SYMBOL OpAmps\\UniversalOpAmp 240 1184 M0
SYMATTR InstName U4
SYMBOL res 320 1200 R0
SYMATTR InstName R20
SYMATTR Value 100k
SYMBOL res 528 1184 R90
WINDOW 0 0 56 VBottom 2
WINDOW 3 32 56 VTop 2
SYMATTR InstName R21
SYMATTR Value 510k
SYMBOL res 192 1312 R90
WINDOW 0 0 56 VBottom 2
WINDOW 3 32 56 VTop 2
SYMATTR InstName R22
SYMATTR Value 100k
SYMBOL OpAmps\\UniversalOpAmp 240 1328 M0
SYMATTR InstName U5
SYMBOL res 320 1344 R0
SYMATTR InstName R23
SYMATTR Value 470k
SYMBOL res 528 1328 R90
WINDOW 0 0 56 VBottom 2
WINDOW 3 32 56 VTop 2
SYMATTR InstName R24
SYMATTR Value 560k
SYMBOL res 976 -192 R0
SYMATTR InstName Rs
SYMATTR Value 0.1
SYMBOL res 976 16 R0
SYMATTR InstName Rl
SYMATTR Value 100
SYMBOL res -1008 1024 R0
SYMATTR InstName R6
SYMATTR Value 10
SYMBOL npn 784 -352 R0
SYMATTR InstName Q13
SYMATTR Value 2N2222
SYMBOL npn 784 1088 M0
SYMATTR InstName Q5
SYMATTR Value 2N2222
SYMBOL res 976 1120 R90
WINDOW 0 0 56 VBottom 2
WINDOW 3 32 56 VTop 2
SYMATTR InstName R25
SYMATTR Value 100
SYMBOL OpAmps\\UniversalOpAmp 1152 1136 M0
SYMATTR InstName U6
SYMBOL res 1200 880 R90
WINDOW 0 0 56 VBottom 2
WINDOW 3 32 56 VTop 2
SYMATTR InstName R26
SYMATTR Value 5k6
SYMBOL cap 1184 992 R90
WINDOW 0 0 32 VBottom 2
WINDOW 3 32 32 VTop 2
SYMATTR InstName C2
SYMATTR Value 22n
SYMBOL res 1328 1248 R0
SYMATTR InstName R27
SYMATTR Value 5k6
SYMBOL res 1552 1104 R90
WINDOW 0 0 56 VBottom 2
WINDOW 3 32 56 VTop 2
SYMATTR InstName R28
SYMATTR Value 100
SYMBOL res 1488 880 R90
WINDOW 0 0 56 VBottom 2
WINDOW 3 32 56 VTop 2
SYMATTR InstName R29
SYMATTR Value 100
SYMBOL OpAmps\\UniversalOpAmp 1680 896 M0
SYMATTR InstName U7
SYMBOL res 1728 736 R90
WINDOW 0 0 56 VBottom 2
WINDOW 3 28 61 VTop 2
SYMATTR InstName R31
SYMATTR Value 5k1
SYMBOL res 1840 864 R180
WINDOW 0 36 76 Left 2
WINDOW 3 36 40 Left 2
SYMATTR InstName R32
SYMATTR Value 1k
SYMBOL res 1936 1040 R180
WINDOW 0 36 76 Left 2
WINDOW 3 36 40 Left 2
SYMATTR InstName R33
SYMATTR Value 5k1
SYMBOL res 1904 800 R0
SYMATTR InstName R34
SYMATTR Value 1k
SYMBOL OpAmps\\UniversalOpAmp 1648 1232 M0
SYMATTR InstName U8
SYMBOL res 1696 1104 R90
WINDOW 0 0 56 VBottom 2
WINDOW 3 32 56 VTop 2
SYMATTR InstName R35
SYMATTR Value 100k
SYMBOL res 1680 1024 R0
SYMATTR InstName R36
SYMATTR Value 100k
SYMBOL res 1904 1136 R90
WINDOW 0 0 56 VBottom 2
WINDOW 3 32 56 VTop 2
SYMATTR InstName R37
SYMATTR Value 100k
SYMBOL OpAmps\\UniversalOpAmp 1952 1152 M0
SYMATTR InstName U9
SYMBOL res 2032 1168 R0
SYMATTR InstName R38
SYMATTR Value 100k
SYMBOL res 2240 1152 R90
WINDOW 0 0 56 VBottom 2
WINDOW 3 32 56 VTop 2
SYMATTR InstName R39
SYMATTR Value 510k
SYMBOL res 1904 1280 R90
WINDOW 0 0 56 VBottom 2
WINDOW 3 32 56 VTop 2
SYMATTR InstName R40
SYMATTR Value 100k
SYMBOL OpAmps\\UniversalOpAmp 1952 1296 M0
SYMATTR InstName U10
SYMBOL res 2032 1312 R0
SYMATTR InstName R41
SYMATTR Value 470k
SYMBOL res 2240 1296 R90
WINDOW 0 0 56 VBottom 2
WINDOW 3 32 56 VTop 2
SYMATTR InstName R42
SYMATTR Value 560k
SYMBOL res 704 992 R0
SYMATTR InstName R43
SYMATTR Value 10
SYMBOL ind 752 1232 R270
WINDOW 0 32 56 VTop 2
WINDOW 3 5 56 VBottom 2
SYMATTR InstName L1
SYMATTR Value 1Meg
SYMBOL cap 768 1312 R180
WINDOW 0 24 56 Left 2
WINDOW 3 24 8 Left 2
SYMATTR InstName C3
SYMATTR Value 1Meg
SYMBOL voltage 752 1296 R0
WINDOW 123 24 124 Left 2
WINDOW 39 0 0 Left 0
SYMATTR Value2 AC 1
SYMATTR InstName V3
SYMATTR Value ""
SYMBOL cap 1072 32 R0
SYMATTR InstName C4
SYMATTR Value 1µ
SYMBOL cap 736 -448 R0
SYMATTR InstName C5
SYMATTR Value 100n
SYMBOL voltage 928 272 R180
WINDOW 0 24 96 Left 2
WINDOW 3 -423 38 Left 2
WINDOW 123 0 0 Left 0
WINDOW 39 0 0 Left 0
SYMATTR InstName V4
SYMATTR Value PULSE(0 6 0 1n 1n 1m 2m 1k)
SYMBOL OpAmps\\UniversalOpamp2 2896 -384 M180
SYMATTR InstName U11
SYMBOL res 2816 -416 R90
WINDOW 0 0 56 VBottom 2
WINDOW 3 32 56 VTop 2
SYMATTR InstName R44
SYMATTR Value 1k
SYMBOL res 2960 -560 R90
WINDOW 0 0 56 VBottom 2
WINDOW 3 32 56 VTop 2
SYMATTR InstName R45
SYMATTR Value 10k
SYMBOL LED 3200 -256 R0
SYMATTR InstName D2
SYMATTR Value QTLP690C
SYMATTR Description Diode
SYMATTR Type diode
SYMBOL res 3200 -384 R0
SYMATTR InstName R46
SYMATTR Value 470
SYMBOL voltage 3568 -560 R0
WINDOW 3 -309 -113 Left 2
WINDOW 123 0 0 Left 0
WINDOW 39 0 0 Left 0
SYMATTR Value PULSE(0.8 1.6 0 1m 1m 1u 2m 5k)
SYMATTR InstName V5
SYMBOL OpAmps\\UniversalOpamp2 4096 -384 M180
SYMATTR InstName U12
SYMBOL res 4016 -416 R90
WINDOW 0 0 56 VBottom 2
WINDOW 3 32 56 VTop 2
SYMATTR InstName R47
SYMATTR Value 3k3
SYMBOL res 4160 -560 R90
WINDOW 0 0 56 VBottom 2
WINDOW 3 32 56 VTop 2
SYMATTR InstName R48
SYMATTR Value 51k
SYMBOL LED 4928 -256 R0
SYMATTR InstName D1
SYMATTR Value QTLP690C
SYMATTR Description Diode
SYMATTR Type diode
SYMBOL res 4928 -384 R0
SYMATTR InstName R49
SYMATTR Value 100
SYMBOL voltage 3568 -368 R0
WINDOW 123 0 0 Left 0
WINDOW 39 0 0 Left 0
SYMATTR InstName V6
SYMATTR Value 3.3
SYMBOL res 4048 -560 R90
WINDOW 0 0 56 VBottom 2
WINDOW 3 32 56 VTop 2
SYMATTR InstName R50
SYMATTR Value 2k2
SYMBOL res 2848 -560 R90
WINDOW 0 0 56 VBottom 2
WINDOW 3 32 56 VTop 2
SYMATTR InstName R51
SYMATTR Value 470
SYMBOL nmos 640 -224 R0
SYMATTR InstName M3
SYMATTR Value BSC052N03LS
SYMBOL Digital\\srflop 4848 -480 R0
SYMATTR InstName A1
SYMBOL voltage 4672 -368 R0
WINDOW 3 -139 174 Left 2
WINDOW 123 0 0 Left 0
WINDOW 39 0 0 Left 0
SYMATTR InstName V8
SYMATTR Value PULSE(0 3.3 1m 1n 1n 100u 8m 1)
SYMBOL npn 448 -224 R0
SYMATTR InstName Q6
SYMATTR Value 2N2222
SYMBOL res 624 -272 R90
WINDOW 0 0 56 VBottom 2
WINDOW 3 32 56 VTop 2
SYMATTR InstName R53
SYMATTR Value 1k
SYMBOL res 448 -192 R90
WINDOW 0 0 56 VBottom 2
WINDOW 3 32 56 VTop 2
SYMATTR InstName R52
SYMATTR Value 100
SYMBOL res 4368 -448 R90
WINDOW 0 0 56 VBottom 2
WINDOW 3 32 56 VTop 2
SYMATTR InstName R54
SYMATTR Value 1k
SYMBOL cap 4368 -400 R0
SYMATTR InstName C6
SYMATTR Value 200n
SYMBOL res 4400 -544 R90
WINDOW 0 0 56 VBottom 2
WINDOW 3 32 56 VTop 2
SYMATTR InstName R55
SYMATTR Value 10k
SYMBOL res 4512 -544 R90
WINDOW 0 0 56 VBottom 2
WINDOW 3 32 56 VTop 2
SYMATTR InstName R56
SYMATTR Value 10k
SYMBOL OpAmps\\UniversalOpamp2 4480 -432 R0
SYMATTR InstName U13
TEXT -1000 360 Left 2 !;op
TEXT -1000 384 Left 2 !;tran 20m
TEXT -1008 400 Left 2 !;dc V2 6.15 6.55 0.1
TEXT 1376 -392 Left 2 !.lib 2SA2210-SPICE-D.LIB
TEXT 1400 72 Left 2 !;step param Rl 0.00001 10 0.1
TEXT 1432 208 Left 2 !.model BS170 VDMOS VTO=1.824 RG=270 RS=1.572 RD=1.436 RB=.768 KP=.1233 Cgdmax=20p Cgdmin=3p CGS=28p Cjo=35p Rds=1.2E8 IS=5p Bv=60 Ibv=10u Tt=161.6n
TEXT -1016 768 Left 2 ;LDOA
TEXT 688 728 Left 2 ;LDOB
TEXT 1416 -104 Left 2 !;ac dec 1000 10 100meg
TEXT 1376 -336 Left 2 !.tran 0 10m 0
TEXT 4568 -152 Left 2 ;Pulsador Normal Cerrado
RECTANGLE Normal 592 1520 -1072 704 2
RECTANGLE Normal 2336 1520 624 672 2
