Version 4
SHEET 1 1056 680
WIRE 384 -208 352 -208
WIRE 512 -208 464 -208
WIRE 976 -192 976 -208
WIRE 416 -144 400 -144
WIRE 736 -144 736 -208
WIRE 400 -128 400 -144
WIRE 416 -80 416 -144
WIRE 976 -80 976 -112
WIRE 240 -64 160 -64
WIRE 352 -64 352 -208
WIRE 352 -64 320 -64
WIRE 384 -64 352 -64
WIRE 512 -64 512 -208
WIRE 688 -64 512 -64
WIRE 160 -48 160 -64
WIRE 496 -48 448 -48
WIRE 512 -48 512 -64
WIRE 512 -48 496 -48
WIRE 384 -32 336 -32
WIRE 736 -32 736 -48
WIRE 336 0 336 -32
WIRE 416 16 416 -16
WIRE 336 32 336 0
WIRE 160 64 160 32
WIRE 736 80 736 48
WIRE 336 128 336 112
WIRE 736 160 736 144
WIRE 368 240 336 240
WIRE 496 240 448 240
WIRE 256 256 208 256
WIRE 336 256 336 240
WIRE 208 288 208 256
WIRE 400 304 384 304
WIRE 720 304 720 240
WIRE 384 320 384 304
WIRE 400 368 400 304
WIRE 224 384 144 384
WIRE 336 384 336 256
WIRE 336 384 304 384
WIRE 368 384 336 384
WIRE 496 384 496 240
WIRE 576 384 496 384
WIRE 672 384 576 384
WIRE 144 400 144 384
WIRE 496 400 496 384
WIRE 496 400 432 400
WIRE 368 416 320 416
WIRE 720 416 720 400
WIRE 400 464 400 432
WIRE 320 480 320 416
WIRE 144 512 144 480
WIRE 720 528 720 496
WIRE 720 608 720 592
FLAG 336 128 0
FLAG 976 -208 Vcc
FLAG 416 16 Vcc
FLAG 160 64 0
FLAG 496 -48 out
FLAG 336 0 in
FLAG 400 -128 0
FLAG 976 -80 0
FLAG 736 160 0
FLAG 736 -208 Vcc
FLAG 400 464 Vcc
FLAG 144 512 0
FLAG 384 320 0
FLAG 720 608 0
FLAG 720 240 Vcc
FLAG 320 480 in
FLAG 576 384 out5
FLAG 208 288 0
SYMBOL OpAmps\\UniversalOpamp2 416 -48 M180
SYMATTR InstName U2
SYMBOL res 336 -80 R90
WINDOW 0 0 56 VBottom 2
WINDOW 3 32 56 VTop 2
SYMATTR InstName R1
SYMATTR Value 2k7
SYMBOL res 480 -224 R90
WINDOW 0 0 56 VBottom 2
WINDOW 3 32 56 VTop 2
SYMATTR InstName R2
SYMATTR Value 220k
SYMBOL voltage 976 -208 R0
WINDOW 123 0 0 Left 0
WINDOW 39 0 0 Left 0
SYMATTR InstName V1
SYMATTR Value 6.35
SYMBOL voltage 336 16 R0
WINDOW 3 -738 -90 Left 2
WINDOW 123 0 0 Left 0
WINDOW 39 0 0 Left 0
SYMATTR InstName V2
SYMATTR Value PULSE(0 6 0 1m 1m 1u 2m 5k)
SYMBOL voltage 160 -64 R0
WINDOW 123 0 0 Left 0
WINDOW 39 0 0 Left 0
SYMATTR InstName Vref
SYMATTR Value 3.3
SYMBOL LED 720 80 R0
SYMATTR InstName D1
SYMATTR Value QTLP690C
SYMATTR Description Diode
SYMATTR Type diode
SYMBOL res 720 -48 R0
SYMATTR InstName R3
SYMATTR Value 1k
SYMBOL nmos 688 -144 R0
SYMATTR InstName M1
SYMATTR Value BSZ130N03LS
SYMBOL OpAmps\\UniversalOpamp2 400 400 M180
SYMATTR InstName U1
SYMBOL res 320 368 R90
WINDOW 0 0 56 VBottom 2
WINDOW 3 32 56 VTop 2
SYMATTR InstName R4
SYMATTR Value 1k
SYMBOL res 464 224 R90
WINDOW 0 0 56 VBottom 2
WINDOW 3 32 56 VTop 2
SYMATTR InstName R5
SYMATTR Value 10k
SYMBOL voltage 144 384 R0
WINDOW 123 0 0 Left 0
WINDOW 39 0 0 Left 0
SYMATTR InstName Vref1
SYMATTR Value 3.3
SYMBOL LED 704 528 R0
SYMATTR InstName D2
SYMATTR Value QTLP690C
SYMATTR Description Diode
SYMATTR Type diode
SYMBOL res 704 400 R0
SYMATTR InstName R6
SYMATTR Value 1k
SYMBOL nmos 672 304 R0
SYMATTR InstName M2
SYMATTR Value FDS6961A
SYMBOL res 352 240 R90
WINDOW 0 0 56 VBottom 2
WINDOW 3 32 56 VTop 2
SYMATTR InstName R7
SYMATTR Value 470
TEXT -404 -40 Left 2 !.tran 0 10m 0
