Version 4
SHEET 1 1012 680
WIRE 304 96 304 64
WIRE 368 96 304 96
WIRE 496 112 432 112
WIRE 560 112 496 112
WIRE 176 128 176 -16
WIRE 304 128 176 128
WIRE 368 128 304 128
WIRE 176 224 176 128
WIRE 304 224 304 128
WIRE 304 336 304 304
WIRE 496 336 496 112
WIRE 496 336 304 336
FLAG 176 304 0
FLAG 400 144 0
FLAG 304 -16 0
FLAG 176 -176 0
FLAG 560 192 0
SYMBOL res 160 208 R0
SYMATTR InstName Ry1
SYMATTR Value 3.3k
SYMBOL res 288 208 R0
SYMATTR InstName Rh1
SYMATTR Value 100k
SYMBOL res 160 -112 R0
SYMATTR InstName Rx1
SYMATTR Value 1k
SYMBOL voltage 304 80 R180
WINDOW 0 24 96 Left 2
WINDOW 3 24 16 Left 2
WINDOW 123 0 0 Left 0
WINDOW 39 0 0 Left 0
SYMATTR InstName V1
SYMATTR Value PULSE(0 5 0 500u 500u 1p 1m 100k)
SYMBOL voltage 176 -80 R180
WINDOW 123 0 0 Left 0
WINDOW 39 0 0 Left 0
SYMATTR InstName V2
SYMATTR Value 1.2
SYMBOL res 544 96 R0
SYMATTR InstName R1
SYMATTR Value 1k
SYMBOL OpAmps\\opamp2 400 48 R0
SYMATTR InstName U1
TEXT -172 342 Left 2 !.tran 20m
